Version 4
SHEET 1 4184 1340
WIRE 3184 -128 2896 -128
WIRE 3296 -128 3184 -128
WIRE 3424 -128 3296 -128
WIRE 2752 -112 2560 -112
WIRE 2848 -112 2752 -112
WIRE 2896 -112 2896 -128
WIRE 2896 -112 2848 -112
WIRE 2944 -112 2896 -112
WIRE 2560 -80 2560 -112
WIRE 2752 -48 2752 -112
WIRE 2560 48 2560 0
WIRE 2944 64 2944 -112
WIRE 3184 112 3184 -128
WIRE 2272 128 2192 128
WIRE 2656 128 2272 128
WIRE 2816 128 2736 128
WIRE 2896 128 2816 128
WIRE 3424 176 3424 -128
WIRE 2272 192 2272 128
WIRE 2752 224 2752 32
WIRE 2816 224 2816 208
WIRE 2816 224 2752 224
WIRE 3184 224 3184 192
WIRE 3184 224 3152 224
WIRE 3232 224 3184 224
WIRE 3360 224 3312 224
WIRE 2944 240 2944 160
WIRE 3040 240 2944 240
WIRE 3152 240 3152 224
WIRE 3152 240 3104 240
WIRE 2816 256 2816 224
WIRE 3424 288 3424 272
WIRE 3664 288 3424 288
WIRE 2272 304 2272 272
WIRE 3184 320 3184 304
WIRE 2944 336 2944 320
WIRE 2816 352 2816 336
FLAG 2272 304 0
FLAG 3184 320 0
FLAG 2272 128 vi
FLAG 3296 -64 0
FLAG 3424 368 0
FLAG 2560 48 0
FLAG 2944 336 0
FLAG 2816 352 0
FLAG 2848 -48 0
SYMBOL res 3328 208 R90
WINDOW 0 0 56 VBottom 2
WINDOW 3 32 56 VTop 2
SYMATTR InstName R4
SYMATTR Value 56
SYMBOL voltage 2272 176 R0
WINDOW 3 24 152 Left 2
WINDOW 123 24 124 Left 2
WINDOW 39 0 0 Left 0
SYMATTR Value ""
SYMATTR Value2 AC 1
SYMATTR InstName V2
SYMBOL res 3168 208 R0
SYMATTR InstName R3
SYMATTR Value 10k
SYMBOL res 3168 96 R0
SYMATTR InstName R5
SYMATTR Value 2.7k
SYMBOL npn 3360 176 R0
SYMATTR InstName Q1
SYMATTR Value 2N3866
SYMBOL res 3408 272 R0
SYMATTR InstName R9
SYMATTR Value 220
SYMBOL cap 3280 -128 R0
SYMATTR InstName C4
SYMATTR Value 100n
SYMBOL njf 2896 64 R0
SYMATTR InstName J1
SYMATTR Value J310
SYMBOL voltage 2560 -96 R0
WINDOW 123 0 0 Left 0
WINDOW 39 0 0 Left 0
SYMATTR InstName V4
SYMATTR Value 12
SYMBOL res 2928 224 R0
SYMATTR InstName R14
SYMATTR Value 680
SYMBOL res 2736 -64 R0
SYMATTR InstName R15
SYMATTR Value 1Meg
SYMBOL res 2800 112 R0
SYMATTR InstName R16
SYMATTR Value 1Meg
SYMBOL res 2800 240 R0
SYMATTR InstName R17
SYMATTR Value 1Meg
SYMBOL cap 2832 -112 R0
SYMATTR InstName C6
SYMATTR Value 100n
SYMBOL voltage 2640 128 R270
WINDOW 0 32 56 VTop 2
WINDOW 3 -32 56 VBottom 2
WINDOW 123 0 0 Left 0
WINDOW 39 0 0 Left 0
SYMATTR InstName V7
SYMATTR Value 0
SYMBOL cap 3104 224 R90
WINDOW 0 0 32 VBottom 2
WINDOW 3 32 32 VTop 2
SYMATTR InstName C7
SYMATTR Value 100n
TEXT -152 520 Left 2 !.MODEL J310 NJF(VTO=-3.8366 BETA=2.88371m BETATCE=-0.5 LAMBDA=2.00998E-2 RD=1.53610 RS=1.53610 CGS=7.40000p CGD=6.20000p PB=7.58274E-1 IS=4.18900E-16 XTI=3 AF=1 FC=0.5 N=1 NR=2 MFG=PHILIPS)
TEXT -144 552 Left 2 !.MODEL 2N5109 NPN ( BF=44 VAF=160 VAR=16 RC=0.69 RB=1.57 RE=2.75 IKF=0.28 ISE=0.36E-13 TF=0.111n TR=8n ITF=0.82E-01 VTF=0.66E+01 CJC=3p CJE=2p XTI=3.0 NE=1.5 ISC=0.12E-13 EG=1.11 XTB=1.5 BR=1.14 VJC=0.75 VJE=0.75 IS=0.40E-14 MJC=0.33 MJE=0.33 XTF=4 IKR=0.28 KF=1f NC=1.7 FC=0.5 RBM=1.1 IRB=0.40E-01 XCJC=0.5 mfg=Motorola )
TEXT -128 640 Left 2 !.ac dec 100 100 1000meg
TEXT 352 624 Left 2 !.MODEL 2N3866  NPN (\n+ IS=13.232E-12\n+ BF=1.2948E3\n+ VAF=100\n+ IKF=.13116\n+ ISE=785.43E-12\n+ NE=1.7362\n+ BR=1.0408\n+ VAR=100\n+ IKR=3.3880\n+ ISC=13.232E-12\n+ NC=1.4860\n+ NK=.72187\n+ RB=8.9057\n+ RC=1.7862\n+ CJE=31.375E-12\n+ VJE=.87558\n+ MJE=.31831\n+ CJC=7.3111E-12\n+ VJC=.76419\n+ MJC=.30725\n+ TF=178.96E-12\n+ XTF=10.044\n+ VTF=10.275\n+ ITF=5.8742\n+ TR=10.000E-9 )
