Version 4
SHEET 1 4184 680
WIRE 3184 -128 2896 -128
WIRE 3296 -128 3184 -128
WIRE 3424 -128 3296 -128
WIRE 2752 -112 2560 -112
WIRE 2848 -112 2752 -112
WIRE 2896 -112 2896 -128
WIRE 2896 -112 2848 -112
WIRE 2944 -112 2896 -112
WIRE 640 -80 480 -80
WIRE 2560 -80 2560 -112
WIRE 480 -48 480 -80
WIRE 2752 -48 2752 -112
WIRE 80 -32 -112 -32
WIRE 176 -32 80 -32
WIRE 272 -32 176 -32
WIRE 640 -32 640 -80
WIRE 736 -32 640 -32
WIRE 832 -32 736 -32
WIRE -112 0 -112 -32
WIRE 80 32 80 -32
WIRE 736 48 736 32
WIRE 2560 48 2560 0
WIRE 480 64 480 32
WIRE 2944 64 2944 -112
WIRE 640 112 640 -32
WIRE 3184 112 3184 -128
WIRE -112 128 -112 80
WIRE 2432 128 2352 128
WIRE 2448 128 2432 128
WIRE 2656 128 2592 128
WIRE 2816 128 2736 128
WIRE 2896 128 2816 128
WIRE 272 144 272 -32
WIRE 3424 176 3424 -128
WIRE 2432 192 2432 128
WIRE -240 208 -320 208
WIRE -160 208 -240 208
WIRE -16 208 -80 208
WIRE 144 208 64 208
WIRE 224 208 144 208
WIRE 2752 224 2752 32
WIRE 2816 224 2816 208
WIRE 2816 224 2752 224
WIRE 3184 224 3184 192
WIRE 3184 224 3152 224
WIRE 3232 224 3184 224
WIRE 3360 224 3312 224
WIRE 2944 240 2944 160
WIRE 3040 240 2944 240
WIRE 3152 240 3152 224
WIRE 3152 240 3104 240
WIRE 832 256 832 -32
WIRE 2816 256 2816 224
WIRE -240 272 -240 208
WIRE -80 288 -80 272
WIRE 3424 288 3424 272
WIRE 3664 288 3424 288
WIRE 80 304 80 112
WIRE 144 304 144 288
WIRE 144 304 80 304
WIRE 640 304 640 192
WIRE 656 304 640 304
WIRE 768 304 736 304
WIRE 2432 304 2432 272
WIRE 2592 304 2592 288
WIRE 272 320 272 240
WIRE 384 320 352 320
WIRE 640 320 640 304
WIRE 640 320 448 320
WIRE 3184 320 3184 304
WIRE 144 336 144 304
WIRE 2944 336 2944 320
WIRE 640 352 640 320
WIRE 2816 352 2816 336
WIRE 352 368 352 320
WIRE 832 368 832 352
WIRE 1120 368 832 368
WIRE -240 384 -240 352
WIRE 3024 384 3024 368
WIRE 272 416 272 400
WIRE 144 432 144 416
WIRE 352 464 352 448
WIRE 640 464 640 432
WIRE 832 480 832 448
FLAG -112 128 0
FLAG -240 384 0
FLAG 272 416 0
FLAG 3184 320 0
FLAG -240 208 vi
FLAG 144 432 0
FLAG 832 480 0
FLAG 176 32 0
FLAG 3296 -64 0
FLAG -80 288 0
FLAG 3424 368 0
FLAG 640 464 0
FLAG 480 64 0
FLAG 1120 368 vo
FLAG 2560 48 0
FLAG 2432 304 0
FLAG 2944 336 0
FLAG 2432 128 vi
FLAG 2816 352 0
FLAG 2848 -48 0
FLAG 2592 304 0
FLAG 3024 384 0
FLAG 352 464 0
FLAG 736 48 0
SYMBOL njf 224 144 R0
SYMATTR InstName J310
SYMATTR Value J310
SYMBOL voltage -112 -16 R0
WINDOW 123 0 0 Left 0
WINDOW 39 0 0 Left 0
SYMATTR InstName V1
SYMATTR Value 12
SYMBOL res 256 304 R0
SYMATTR InstName R2
SYMATTR Value 680
SYMBOL res 3328 208 R90
WINDOW 0 0 56 VBottom 2
WINDOW 3 32 56 VTop 2
SYMATTR InstName R4
SYMATTR Value 47
SYMBOL voltage -240 256 R0
WINDOW 3 24 152 Left 2
WINDOW 123 24 124 Left 2
WINDOW 39 0 0 Left 0
SYMATTR Value ""
SYMATTR Value2 AC 1
SYMATTR InstName V2
SYMBOL res 64 16 R0
SYMATTR InstName R1
SYMATTR Value 1Meg
SYMBOL res 128 192 R0
SYMATTR InstName R6
SYMATTR Value 1Meg
SYMBOL res 128 320 R0
SYMATTR InstName R7
SYMATTR Value 1Meg
SYMBOL res -64 192 R90
WINDOW 0 0 56 VBottom 2
WINDOW 3 32 56 VTop 2
SYMATTR InstName R8
SYMATTR Value 1
SYMBOL res 3168 208 R0
SYMATTR InstName R3
SYMATTR Value 10k
SYMBOL res 3168 96 R0
SYMATTR InstName R5
SYMATTR Value 2.2k
SYMBOL npn 3360 176 R0
SYMATTR InstName Q1
SYMATTR Value 2N5109
SYMBOL res 3408 272 R0
SYMATTR InstName R9
SYMATTR Value 220
SYMBOL cap 448 304 R90
WINDOW 0 0 32 VBottom 2
WINDOW 3 32 32 VTop 2
SYMATTR InstName C3
SYMATTR Value 100n
SYMBOL cap -96 208 R0
SYMATTR InstName C1
SYMATTR Value 33.7p
SYMBOL cap 160 -32 R0
SYMATTR InstName C2
SYMATTR Value 100n
SYMBOL cap 3280 -128 R0
SYMATTR InstName C4
SYMATTR Value 100n
SYMBOL voltage -32 208 R270
WINDOW 0 32 56 VTop 2
WINDOW 3 -32 56 VBottom 2
WINDOW 123 0 0 Left 0
WINDOW 39 0 0 Left 0
SYMATTR InstName V3
SYMATTR Value 0
SYMBOL npn 768 256 R0
SYMATTR InstName Q2
SYMATTR Value 2N2222
SYMBOL res 816 352 R0
SYMATTR InstName R10
SYMATTR Value 400
SYMBOL res 624 96 R0
SYMATTR InstName R11
SYMATTR Value 2700
SYMBOL res 624 336 R0
SYMATTR InstName R12
SYMATTR Value 4700
SYMBOL res 752 288 R90
WINDOW 0 0 56 VBottom 2
WINDOW 3 32 56 VTop 2
SYMATTR InstName R13
SYMATTR Value 330
SYMBOL voltage 480 -64 R0
WINDOW 123 0 0 Left 0
WINDOW 39 0 0 Left 0
SYMATTR InstName V5
SYMATTR Value 15
SYMBOL njf 2896 64 R0
SYMATTR InstName J1
SYMATTR Value J310
SYMBOL voltage 2560 -96 R0
WINDOW 123 0 0 Left 0
WINDOW 39 0 0 Left 0
SYMATTR InstName V4
SYMATTR Value 12
SYMBOL res 2928 224 R0
SYMATTR InstName R14
SYMATTR Value 680
SYMBOL res 2736 -64 R0
SYMATTR InstName R15
SYMATTR Value 1Meg
SYMBOL res 2800 112 R0
SYMATTR InstName R16
SYMATTR Value 1Meg
SYMBOL res 2800 240 R0
SYMATTR InstName R17
SYMATTR Value 1Meg
SYMBOL res 2608 112 R90
WINDOW 0 0 56 VBottom 2
WINDOW 3 32 56 VTop 2
SYMATTR InstName R18
SYMATTR Value 1
SYMBOL cap 2576 224 R0
SYMATTR InstName C5
SYMATTR Value 33.7p
SYMBOL cap 2832 -112 R0
SYMATTR InstName C6
SYMATTR Value 100n
SYMBOL voltage 2640 128 R270
WINDOW 0 32 56 VTop 2
WINDOW 3 -32 56 VBottom 2
WINDOW 123 0 0 Left 0
WINDOW 39 0 0 Left 0
SYMATTR InstName V7
SYMATTR Value 0
SYMBOL cap 3104 224 R90
WINDOW 0 0 32 VBottom 2
WINDOW 3 32 32 VTop 2
SYMATTR InstName C7
SYMATTR Value 100n
SYMBOL cap 720 -32 R0
SYMATTR InstName C8
SYMATTR Value 100n
SYMBOL voltage 352 352 R0
WINDOW 123 24 124 Left 2
WINDOW 39 0 0 Left 0
SYMATTR Value2 AC 1
SYMATTR InstName V8
SYMATTR Value ""
SYMBOL cap 2512 112 R90
WINDOW 0 0 32 VBottom 2
WINDOW 3 32 32 VTop 2
SYMATTR InstName C9
SYMATTR Value 100n
TEXT -152 520 Left 2 !.MODEL J310 NJF(VTO=-3.8366 BETA=2.88371m BETATCE=-0.5 LAMBDA=2.00998E-2 RD=1.53610 RS=1.53610 CGS=7.40000p CGD=6.20000p PB=7.58274E-1 IS=4.18900E-16 XTI=3 AF=1 FC=0.5 N=1 NR=2 MFG=PHILIPS)
TEXT -144 440 Left 2 !.ac dec 100 100 1G
TEXT -152 464 Left 2 ;.tran .1
TEXT -144 552 Left 2 !.MODEL 2N5109 NPN ( BF=44 VAF=160 VAR=16 RC=0.69 RB=1.57 RE=2.75 IKF=0.28 ISE=0.36E-13 TF=0.111n TR=8n ITF=0.82E-01 VTF=0.66E+01 CJC=3p CJE=2p XTI=3.0 NE=1.5 ISC=0.12E-13 EG=1.11 XTB=1.5 BR=1.14 VJC=0.75 VJE=0.75 IS=0.40E-14 MJC=0.33 MJE=0.33 XTF=4 IKR=0.28 KF=1f NC=1.7 FC=0.5 RBM=1.1 IRB=0.40E-01 XCJC=0.5 mfg=Motorola )
