Version 4
SHEET 1 1596 1264
WIRE -176 0 -336 0
WIRE 208 0 -176 0
WIRE 784 0 624 0
WIRE 1072 0 784 0
WIRE 624 16 624 0
WIRE -336 32 -336 0
WIRE 784 48 784 0
WIRE -176 64 -176 0
WIRE 624 112 624 96
WIRE 208 128 208 0
WIRE -336 160 -336 112
WIRE 1072 160 1072 0
WIRE -336 208 -416 208
WIRE -48 208 -272 208
WIRE 160 208 -48 208
WIRE 784 208 784 128
WIRE 880 208 784 208
WIRE 1008 208 960 208
WIRE -416 224 -416 208
WIRE 208 256 208 224
WIRE 496 256 208 256
WIRE 528 256 496 256
WIRE 784 256 784 208
WIRE 784 256 592 256
WIRE -48 272 -48 208
WIRE 208 288 208 256
WIRE 496 304 496 256
WIRE -416 336 -416 304
WIRE 784 336 784 256
WIRE 1072 336 1072 256
WIRE 1120 336 1072 336
WIRE 1232 336 1184 336
WIRE -176 400 -176 144
WIRE -48 400 -48 352
WIRE -48 400 -176 400
WIRE 208 400 208 368
WIRE -48 416 -48 400
WIRE 496 432 496 384
WIRE 1232 432 1232 416
WIRE -416 448 -416 416
WIRE 784 448 784 416
WIRE 1072 448 1072 416
WIRE -48 528 -48 496
FLAG -336 160 0
FLAG -48 528 0
FLAG 208 400 0
FLAG 784 448 0
FLAG 1072 448 0
FLAG -416 448 0
FLAG 496 432 0
FLAG 624 112 0
FLAG 1232 432 0
SYMBOL nmos 160 128 R0
SYMATTR InstName M1
SYMATTR Value 2N7002
SYMBOL res 192 272 R0
SYMATTR InstName R1
SYMATTR Value 680
SYMBOL res -192 48 R0
SYMATTR InstName R2
SYMATTR Value 1Meg
SYMBOL res -64 256 R0
SYMATTR InstName R3
SYMATTR Value 1Meg
SYMBOL res -64 400 R0
SYMATTR InstName R4
SYMATTR Value 330k
SYMBOL res 768 32 R0
SYMATTR InstName R5
SYMATTR Value 2700
SYMBOL res 768 320 R0
SYMATTR InstName R6
SYMATTR Value 4700
SYMBOL res 1056 320 R0
SYMATTR InstName R7
SYMATTR Value 470
SYMBOL res 976 192 R90
WINDOW 0 0 56 VBottom 2
WINDOW 3 32 56 VTop 2
SYMATTR InstName R8
SYMATTR Value 47
SYMBOL npn 1008 160 R0
SYMATTR InstName Q1
SYMATTR Value 2N2222
SYMBOL voltage -336 16 R0
WINDOW 123 0 0 Left 0
WINDOW 39 0 0 Left 0
SYMATTR InstName V1
SYMATTR Value 15
SYMBOL voltage -416 320 R0
WINDOW 3 24 44 Left 2
WINDOW 123 24 180 Left 2
WINDOW 39 0 0 Left 0
SYMATTR Value ""
SYMATTR Value2 AC 1
SYMATTR InstName V2
SYMBOL cap 592 240 R90
WINDOW 0 0 32 VBottom 2
WINDOW 3 32 32 VTop 2
SYMATTR InstName C1
SYMATTR Value 100n
SYMBOL voltage 624 0 R0
WINDOW 123 0 0 Left 0
WINDOW 39 0 0 Left 0
SYMATTR InstName V4
SYMATTR Value 15
SYMBOL res -432 208 R0
SYMATTR InstName R9
SYMATTR Value 1
SYMBOL cap -272 192 R90
WINDOW 0 0 32 VBottom 2
WINDOW 3 32 32 VTop 2
SYMATTR InstName C2
SYMATTR Value 100n
SYMBOL cap 1184 320 R90
WINDOW 0 0 32 VBottom 2
WINDOW 3 32 32 VTop 2
SYMATTR InstName C3
SYMATTR Value 100n
TEXT -216 624 Left 2 ;.op
TEXT -232 648 Left 2 !.ac dec 100 100 1G
TEXT -448 672 Left 2 ;.tran .1
